43
test.log	Energy: -462912.4679669
C         -1.12220        0.50534       -0.54325
C         -0.49938       -0.68494       -0.57654
C          0.83519       -1.09981        0.01039
C          1.95253       -0.03517       -0.07686
C          1.77725        1.04962        1.01233
C          0.32878        1.43529        1.36161
C         -0.61815        1.74929        0.18410
C         -2.47343        0.66348       -1.22798
C         -3.67143        0.53524       -0.26795
C         -4.03739       -0.90375        0.08866
C         -4.83961       -1.09641        1.36106
O         -3.72747       -1.84646       -0.61767
C         -0.03976        2.80874       -0.77825
C          3.38569       -0.66916       -0.05300
C          4.48511        0.40570        0.02059
C          3.64111       -1.54166       -1.28819
O          3.52623       -1.56489        1.06683
H         -1.02194       -1.48359       -1.10229
H          1.14801       -2.00519       -0.51645
H          0.71702       -1.41797        1.05674
H          1.85737        0.45258       -1.05626
H          2.32773        1.95023        0.71683
H          2.24484        0.70838        1.94915
H          0.37118        2.31645        2.01691
H         -0.12945        0.63810        1.95975
H         -1.50868        2.21538        0.63585
H         -2.52878        1.64578       -1.71453
H         -2.58891       -0.08865       -2.01391
H         -3.51656        1.11010        0.65423
H         -4.57406        0.96570       -0.73105
H         -5.22935       -2.11567        1.41314
H         -4.19087       -0.91787        2.22930
H         -5.66410       -0.37593        1.42691
H         -0.76796        3.09045       -1.54729
H          0.22989        3.72175       -0.23186
H          0.85523        2.44629       -1.29378
H          5.47007       -0.07046       -0.03139
H          4.40851        1.12279       -0.80573
H          4.44145        0.97234        0.95733
H          4.65808       -1.94615       -1.25009
H          3.53841       -0.95508       -2.20788
H          2.95425       -2.39049       -1.34268
H          3.48276       -1.02932        1.87549
